*EXP.DETAILS: WIH20025MZ                                                             

*GENERAL
@ PAREA  PRNO  PLEN  PLDR  PLSP  PLAY HAREA  HRNO  HLEN  HARM           
    9.3   -99   6.6   -99   -99   -99   -99   -99   -99  99             

*TREATMENTS                        -------------FACTOR LEVELS------------
@N R O C TNAME                     CU FL SA IC MP MI MF MR MC MT ME MH SM
 1 1 1 0 Original G2F Data 990002   1  1  0  1  1  0  0  0  0  1  0  0  1

*CULTIVARS
@C CR INGENO CNAME
 1 MZ 990002 2369_LH123HT_1  

*FIELDS
@L ID_FIELD WSTA      FLSA  FLOB  FLDT  FLDD  FLDS  FLST SLTX   SLDP ID_SOIL    FLNAME
 1      -99 WIH21997  -99.  -99.   -99  -99.  -99.   -99 -99    200. WIH2______ -99                      
@L            XCRD            YCRD      ELEV              AREA  SLEN  FLWR  SLAS FLHST FHDUR
 1     -89.3317199     43.32006956       -99              -99.  -99.  -99.  -99.   -99   -99

*INITIAL CONDITIONS
@C   PCR ICDAT  ICRT  ICND  ICRN  ICRE  ICWD ICRES ICREN ICREP ICRIP ICRID ICNAME
 1    SB 21144  -99.  -99.  -99.  -99.  -99.  -99.  -99.  -99.  -99.  -99. -99                      

*PLANTING DETAILS
@P PDATE EDATE  PPOP  PPOE  PLME  PLDS  PLRS  PLRD  PLDP  PLWT  PAGE  PENV  PLPH  SPRL  NFOR  PLTF  NDOF  PMTYPLNAME
 1 21144   -99 9.688 9.688     S     9   75.  -99.    5.  -99.  -99.  -99.  -99.  -99.   -99    0.     0     0-99                      

*TILLAGE AND ROTATIONS
@T TDATE TIMPL  TDEP TNAME
 1 21144 TI033    5. -99                      
 1 21147 TI011   10. -99                      

*SIMULATION CONTROLS
@N GENERAL     NYERS NREPS START SDATE RSEED SNAME                     SMODEL
 1 GE              1     1     S 21144  2150 DEFAULT SIMULATION CONTRL         
@N OPTIONS     WATER NITRO SYMBI PHOSP POTAS DISES  CHEM  TILL   CO2
 1 OP              Y     N     Y     N     N     N     N     Y     M
@N METHODS     WTHER INCON LIGHT EVAPO INFIL PHOTO HYDRO NSWIT MESOM MESEV MESOL
 1 ME              M     M     E     R     S     C     R     1     P     S     2
@N MANAGEMENT  PLANT IRRIG FERTI RESID HARVS
 1 MA              R     R     R     R     M
@N OUTPUTS     FNAME OVVEW SUMRY FROPT GROUT CAOUT WAOUT NIOUT MIOUT DIOUT VBOSE CHOUT OPOUT FMOPT
 1 OU              N     Y     Y     1     Y     Y     N     N     N     N     N     N     N     C

@  AUTOMATIC MANAGEMENT
@N PLANTING    PFRST PLAST PH2OL PH2OU PH2OD PSTMX PSTMN
 1 PL          82050 82064   40.  100.   30.   40.   10.
@N IRRIGATION  IMDEP ITHRL ITHRU IROFF IMETH IRAMT IREFF
 1 IR            30.   50.  100. GS000 IR001   10.    1.
@N NITROGEN    NMDEP NMTHR NAMNT NCODE NAOFF
 1 NI            30.   50.   25. FE001 GS000
@N RESIDUES    RIPCN RTIME RIDEP
 1 RE           100.     1   20.
@N HARVEST     HFRST HLAST HPCNP HPCNR
 1 HA              0 83057  100.    0.


