!This soil file is created by DSSAT translator tool on Tue Mar 21 16:32:22 CST 2023.
*SOILS: 

!The ACE ID is N/A.
!This soil data is used for the experiment of WIH20025_1.
!
*WIH2______  Arlington   -99     200 -99
@SITE        COUNTRY          LAT     LONG SCS FAMILY
 -99         -99          -89.331743.32007 Fine-silty, mixed, superactive, mesic Typic Argiudolls
@ SCOM  SALB  SLU1  SLDR  SLRO  SLNF  SLPF  SMHB  SMPX  SMKE
   -99  0.16   -99   0.6    76   -99     1   -99   -99   -99
@  SLB  SLMH  SLLL  SDUL  SSAT  SRGF  SSKS  SBDM  SLOC  SLCL  SLSI  SLCF  SLNI  SLHW  SLHB  SCEC  SADC
    28   -99 0.152 0.299   0.5     1 3.301  1.34     4  22.5    68     0   -99   6.7   -99  19.5   -99
   104   -99 0.163 0.306  0.48 0.267 3.301  1.42   0.6    30    63     0   -99   6.2   -99  23.4   -99
   117   -99 0.151 0.298  0.37 0.110 8.384   1.6  0.25    23    34     6   -99   7.6   -99  17.8   -99
   200   -99 0.132 0.211   0.4 0.042 8.384   1.5  0.25    12    25     9   -99     8   -99   8.4   -99

